iidm/iidm-modification/src/test/resources/eurostag-remove-voltage-level-nb.xml
<?xml version="1.0" encoding="UTF-8"?>
<iidm:network xmlns:iidm="http://www.powsybl.org/schema/iidm/1_17" id="fictitious" caseDate="2021-08-27T14:44:56.567+02:00" forecastDistance="0" sourceFormat="test" minimumValidationLevel="STEADY_STATE_HYPOTHESIS">
    <iidm:voltageLevel id="VLTEST" nominalV="380.0" topologyKind="NODE_BREAKER">
        <iidm:nodeBreakerTopology></iidm:nodeBreakerTopology>
    </iidm:voltageLevel>
    <iidm:substation id="A" country="FR">
        <iidm:voltageLevel id="N" nominalV="225.0" lowVoltageLimit="220.0" highVoltageLimit="245.00002" topologyKind="NODE_BREAKER">
            <iidm:nodeBreakerTopology>
                <iidm:busbarSection id="O" name="E" node="0"/>
                <iidm:busbarSection id="P" name="Q" node="1"/>
                <iidm:switch id="R" name="S" kind="DISCONNECTOR" open="true" node1="0" node2="19"/>
                <iidm:switch id="T" name="U" kind="DISCONNECTOR" open="true" node1="0" node2="17"/>
                <iidm:switch id="V" name="W" kind="DISCONNECTOR" open="true" node1="0" node2="21"/>
                <iidm:switch id="X" name="Y" kind="DISCONNECTOR" open="true" node1="0" node2="11"/>
                <iidm:switch id="Z" name="AA" kind="DISCONNECTOR" open="true" node1="0" node2="13"/>
                <iidm:switch id="AB" name="AC" kind="DISCONNECTOR" open="false" node1="0" node2="15"/>
                <iidm:switch id="AF" name="AG" fictitious="true" kind="DISCONNECTOR" open="true" node1="0" node2="2"/>
                <iidm:switch id="AH" name="AI" kind="DISCONNECTOR" open="false" node1="7" node2="0"/>
                <iidm:switch id="AJ" name="AK" kind="DISCONNECTOR" open="false" node1="1" node2="6"/>
                <iidm:switch id="AL" name="AM" kind="DISCONNECTOR" open="false" node1="1" node2="19"/>
                <iidm:switch id="AN" name="AO" kind="DISCONNECTOR" open="false" node1="1" node2="17"/>
                <iidm:switch id="AP" name="AQ" kind="DISCONNECTOR" open="false" node1="1" node2="21"/>
                <iidm:switch id="AR" name="AS" kind="DISCONNECTOR" open="true" node1="1" node2="11"/>
                <iidm:switch id="AT" name="AU" kind="DISCONNECTOR" open="true" node1="1" node2="13"/>
                <iidm:switch id="AV" name="AW" kind="DISCONNECTOR" open="true" node1="1" node2="15"/>
                <iidm:switch id="AZ" name="BA" fictitious="true" kind="DISCONNECTOR" open="true" node1="1" node2="2"/>
                <iidm:switch id="BB" name="BC" fictitious="true" kind="BREAKER" retained="true" open="true" node1="2" node2="3"/>
                <iidm:switch id="BD" name="BE" kind="BREAKER" retained="true" open="false" node1="3" node2="4"/>
                <iidm:switch id="BJ" name="BK" kind="BREAKER" retained="true" open="false" node1="6" node2="7"/>
                <iidm:switch id="BP" name="BQ" kind="BREAKER" retained="true" open="true" node1="11" node2="12"/>
                <iidm:switch id="BR" name="BS" kind="BREAKER" retained="true" open="true" node1="13" node2="14"/>
                <iidm:switch id="BT" name="BU" kind="BREAKER" retained="true" open="false" node1="15" node2="16"/>
                <iidm:switch id="BV" name="BW" kind="BREAKER" retained="true" open="false" node1="17" node2="18"/>
                <iidm:switch id="BX" name="BY" kind="BREAKER" retained="true" open="false" node1="19" node2="20"/>
                <iidm:switch id="BZ" name="CA" kind="BREAKER" retained="true" open="false" node1="21" node2="22"/>
                <iidm:bus v="236.44736" angle="15.250391" nodes="0,1,6,7,15,16,17,18,19,20,21,22"/>
            </iidm:nodeBreakerTopology>
            <iidm:generator id="CB" energySource="HYDRO" minP="0.0" maxP="70.0" targetP="0.0" localTargetV="0.0" localTargetQ="0.0" node="12">
                <iidm:reactiveCapabilityCurve>
                    <iidm:point p="0.0" minQ="-59.3" maxQ="60.0"/>
                    <iidm:point p="70.0" minQ="-54.55" maxQ="46.25"/>
                </iidm:reactiveCapabilityCurve>
            </iidm:generator>
            <iidm:generator id="CC" energySource="HYDRO" minP="0.0" maxP="80.0" targetP="0.0" localTargetV="0.0" localTargetQ="0.0" node="14">
                <iidm:reactiveCapabilityCurve>
                    <iidm:point p="0.0" minQ="-56.8" maxQ="57.4"/>
                    <iidm:point p="80.0" minQ="-53.514" maxQ="36.4"/>
                </iidm:reactiveCapabilityCurve>
            </iidm:generator>
            <iidm:generator id="CD" energySource="HYDRO" minP="0.0" maxP="35.0" targetP="21.789589" localTargetV="236.44736" localTargetQ="-20.701546" node="16" p="-21.789589" q="20.693394">
                <iidm:reactiveCapabilityCurve>
                    <iidm:point p="0.0" minQ="-20.6" maxQ="18.1"/>
                    <iidm:point p="35.0" minQ="-21.725" maxQ="6.3500004"/>
                </iidm:reactiveCapabilityCurve>
                <iidm:voltageRegulation mode="VOLTAGE" regulating="true"/>
            </iidm:generator>
            <iidm:load id="CE" loadType="UNDEFINED" p0="-72.18689" q0="50.168945" node="4" p="-72.18689" q="50.168945"/>
            <iidm:load id="CF" loadType="UNDEFINED" p0="8.455854" q0="-23.695925" node="18" p="8.455854" q="-23.695925"/>
            <iidm:load id="CG" loadType="UNDEFINED" p0="90.39911" q0="-51.96869" node="20" p="90.39911" q="-51.96869"/>
            <iidm:load id="CH" loadType="UNDEFINED" p0="-5.102249" q0="4.9081216" node="22" p="-5.102249" q="4.9081216"/>
        </iidm:voltageLevel>
    </iidm:substation>
</iidm:network>
